<?xml version="1.0" encoding="UTF-8"?>

<!-- generated on 2026-01-31 08:34:35 by Eclipse SUMO netedit Version 1.21.0
<neteditConfiguration xmlns:xsi="http://www.w3.org/2001/XMLSchema-instance" xsi:noNamespaceSchemaLocation="http://sumo.dlr.de/xsd/neteditConfiguration.xsd">

    <input>
        <sumo-net-file value="C:\Users\Naveena Runku\Documents\YYY.net.xml"/>
    </input>

    <output>
        <output-file value="C:\Users\Naveena Runku\Documents\YYY.net.xml"/>
    </output>

    <processing>
        <geometry.min-radius.fix.railways value="false"/>
        <geometry.max-grade.fix value="false"/>
        <offset.disable-normalization value="true"/>
        <lefthand value="0"/>
    </processing>

    <junctions>
        <no-turnarounds value="true"/>
        <junctions.corner-detail value="5"/>
        <junctions.limit-turn-speed value="5.50"/>
        <rectangular-lane-cut value="0"/>
    </junctions>

    <pedestrian>
        <walkingareas value="0"/>
    </pedestrian>

</neteditConfiguration>
-->

<net version="1.20" junctionCornerDetail="5" limitTurnSpeed="5.50" xmlns:xsi="http://www.w3.org/2001/XMLSchema-instance" xsi:noNamespaceSchemaLocation="http://sumo.dlr.de/xsd/net_file.xsd">

    <location netOffset="0.00,0.00" convBoundary="-200.00,-100.00,0.00,100.00" origBoundary="-10000000000.00,-10000000000.00,10000000000.00,10000000000.00" projParameter="!"/>

    <edge id=":J1_0" function="internal">
        <lane id=":J1_0_0" index="0" speed="6.51" length="9.03" shape="-108.00,13.60 -108.35,11.15 -109.40,9.40 -111.15,8.35 -113.60,8.00"/>
    </edge>
    <edge id=":J1_1" function="internal">
        <lane id=":J1_1_0" index="0" speed="13.89" length="27.20" shape="-108.00,13.60 -108.00,-13.60"/>
        <lane id=":J1_1_1" index="1" speed="13.89" length="27.20" shape="-104.80,13.60 -104.80,-13.60"/>
        <lane id=":J1_1_2" index="2" speed="13.89" length="27.20" shape="-101.60,13.60 -101.60,-13.60"/>
    </edge>
    <edge id=":J1_4" function="internal">
        <lane id=":J1_4_0" index="0" speed="10.36" length="5.01" shape="-101.60,13.60 -100.89,8.64"/>
    </edge>
    <edge id=":J1_20" function="internal">
        <lane id=":J1_20_0" index="0" speed="10.36" length="19.50" shape="-100.89,8.64 -100.65,6.95 -97.80,2.20 -93.05,-0.65 -86.40,-1.60"/>
    </edge>
    <edge id=":J1_5" function="internal">
        <lane id=":J1_5_0" index="0" speed="6.51" length="9.03" shape="-86.40,8.00 -88.85,8.35 -90.60,9.40 -91.65,11.15 -92.00,13.60"/>
    </edge>
    <edge id=":J1_6" function="internal">
        <lane id=":J1_6_0" index="0" speed="13.89" length="27.20" shape="-86.40,8.00 -113.60,8.00"/>
        <lane id=":J1_6_1" index="1" speed="13.89" length="27.20" shape="-86.40,4.80 -113.60,4.80"/>
        <lane id=":J1_6_2" index="2" speed="13.89" length="27.20" shape="-86.40,1.60 -113.60,1.60"/>
    </edge>
    <edge id=":J1_9" function="internal">
        <lane id=":J1_9_0" index="0" speed="10.36" length="2.51" shape="-86.40,1.60 -88.89,1.24"/>
    </edge>
    <edge id=":J1_21" function="internal">
        <lane id=":J1_21_0" index="0" speed="10.36" length="22.00" shape="-88.89,1.24 -93.05,0.65 -97.80,-2.20 -100.65,-6.95 -101.60,-13.60"/>
    </edge>
    <edge id=":J1_10" function="internal">
        <lane id=":J1_10_0" index="0" speed="6.51" length="9.03" shape="-92.00,-13.60 -91.65,-11.15 -90.60,-9.40 -88.85,-8.35 -86.40,-8.00"/>
    </edge>
    <edge id=":J1_11" function="internal">
        <lane id=":J1_11_0" index="0" speed="13.89" length="27.20" shape="-92.00,-13.60 -92.00,13.60"/>
        <lane id=":J1_11_1" index="1" speed="13.89" length="27.20" shape="-95.20,-13.60 -95.20,13.60"/>
        <lane id=":J1_11_2" index="2" speed="13.89" length="27.20" shape="-98.40,-13.60 -98.40,13.60"/>
    </edge>
    <edge id=":J1_14" function="internal">
        <lane id=":J1_14_0" index="0" speed="10.36" length="5.01" shape="-98.40,-13.60 -99.11,-8.64"/>
    </edge>
    <edge id=":J1_22" function="internal">
        <lane id=":J1_22_0" index="0" speed="10.36" length="19.50" shape="-99.11,-8.64 -99.35,-6.95 -102.20,-2.20 -106.95,0.65 -113.60,1.60"/>
    </edge>
    <edge id=":J1_15" function="internal">
        <lane id=":J1_15_0" index="0" speed="6.51" length="9.03" shape="-113.60,-8.00 -111.15,-8.35 -109.40,-9.40 -108.35,-11.15 -108.00,-13.60"/>
    </edge>
    <edge id=":J1_16" function="internal">
        <lane id=":J1_16_0" index="0" speed="13.89" length="27.20" shape="-113.60,-8.00 -86.40,-8.00"/>
        <lane id=":J1_16_1" index="1" speed="13.89" length="27.20" shape="-113.60,-4.80 -86.40,-4.80"/>
        <lane id=":J1_16_2" index="2" speed="13.89" length="27.20" shape="-113.60,-1.60 -86.40,-1.60"/>
    </edge>
    <edge id=":J1_19" function="internal">
        <lane id=":J1_19_0" index="0" speed="10.36" length="2.51" shape="-113.60,-1.60 -111.11,-1.24"/>
    </edge>
    <edge id=":J1_23" function="internal">
        <lane id=":J1_23_0" index="0" speed="10.36" length="22.00" shape="-111.11,-1.24 -106.95,-0.65 -102.20,2.20 -99.35,6.95 -98.40,13.60"/>
    </edge>

    <edge id="DL2" from="J1" to="J4" priority="-1">
        <lane id="DL2_0" index="0" speed="13.89" length="86.40" shape="-108.00,-13.60 -108.00,-100.00"/>
        <lane id="DL2_1" index="1" speed="13.89" length="86.40" shape="-104.80,-13.60 -104.80,-100.00"/>
        <lane id="DL2_2" index="2" speed="13.89" length="86.40" shape="-101.60,-13.60 -101.60,-100.00"/>
    </edge>
    <edge id="DR2" from="J4" to="J1" priority="-1">
        <lane id="DR2_0" index="0" speed="13.89" length="86.40" shape="-92.00,-100.00 -92.00,-13.60"/>
        <lane id="DR2_1" index="1" speed="13.89" length="86.40" shape="-95.20,-100.00 -95.20,-13.60"/>
        <lane id="DR2_2" index="2" speed="13.89" length="86.40" shape="-98.40,-100.00 -98.40,-13.60"/>
    </edge>
    <edge id="LD1" from="J0" to="J1" priority="-1">
        <lane id="LD1_0" index="0" speed="13.89" length="86.40" shape="-200.00,-8.00 -113.60,-8.00"/>
        <lane id="LD1_1" index="1" speed="13.89" length="86.40" shape="-200.00,-4.80 -113.60,-4.80"/>
        <lane id="LD1_2" index="2" speed="13.89" length="86.40" shape="-200.00,-1.60 -113.60,-1.60"/>
    </edge>
    <edge id="LU1" from="J1" to="J0" priority="-1">
        <lane id="LU1_0" index="0" speed="13.89" length="86.40" shape="-113.60,8.00 -200.00,8.00"/>
        <lane id="LU1_1" index="1" speed="13.89" length="86.40" shape="-113.60,4.80 -200.00,4.80"/>
        <lane id="LU1_2" index="2" speed="13.89" length="86.40" shape="-113.60,1.60 -200.00,1.60"/>
    </edge>
    <edge id="RD1" from="J1" to="J2" priority="-1">
        <lane id="RD1_0" index="0" speed="13.89" length="86.40" shape="-86.40,-8.00 0.00,-8.00"/>
        <lane id="RD1_1" index="1" speed="13.89" length="86.40" shape="-86.40,-4.80 0.00,-4.80"/>
        <lane id="RD1_2" index="2" speed="13.89" length="86.40" shape="-86.40,-1.60 0.00,-1.60"/>
    </edge>
    <edge id="RU1" from="J2" to="J1" priority="-1">
        <lane id="RU1_0" index="0" speed="13.89" length="86.40" shape="0.00,8.00 -86.40,8.00"/>
        <lane id="RU1_1" index="1" speed="13.89" length="86.40" shape="0.00,4.80 -86.40,4.80"/>
        <lane id="RU1_2" index="2" speed="13.89" length="86.40" shape="0.00,1.60 -86.40,1.60"/>
    </edge>
    <edge id="UL2" from="J3" to="J1" priority="-1">
        <lane id="UL2_0" index="0" speed="13.89" length="86.40" shape="-108.00,100.00 -108.00,13.60"/>
        <lane id="UL2_1" index="1" speed="13.89" length="86.40" shape="-104.80,100.00 -104.80,13.60"/>
        <lane id="UL2_2" index="2" speed="13.89" length="86.40" shape="-101.60,100.00 -101.60,13.60"/>
    </edge>
    <edge id="UR2" from="J1" to="J3" priority="-1">
        <lane id="UR2_0" index="0" speed="13.89" length="86.40" shape="-92.00,13.60 -92.00,100.00"/>
        <lane id="UR2_1" index="1" speed="13.89" length="86.40" shape="-95.20,13.60 -95.20,100.00"/>
        <lane id="UR2_2" index="2" speed="13.89" length="86.40" shape="-98.40,13.60 -98.40,100.00"/>
    </edge>

    <tlLogic id="J1" type="static" programID="0" offset="0">
        <phase duration="15" state="GGGGyrrrryGGGGyrrrry"/>
        <phase duration="15" state="GGGGgrrrrrGGGGgrrrrr"/>
        <phase duration="15" state="rrrrrrrrrrrrrrrrrrrr"/>
        <phase duration="15" state="gggggggggggggggggggg"/>
    </tlLogic>

    <junction id="J0" type="dead_end" x="-200.00" y="0.00" incLanes="LU1_0 LU1_1 LU1_2" intLanes="" shape="-200.00,0.00 -200.00,9.60 -200.00,0.00"/>
    <junction id="J1" type="traffic_light" x="-100.00" y="0.00" incLanes="UL2_0 UL2_1 UL2_2 RU1_0 RU1_1 RU1_2 DR2_0 DR2_1 DR2_2 LD1_0 LD1_1 LD1_2" intLanes=":J1_0_0 :J1_1_0 :J1_1_1 :J1_1_2 :J1_20_0 :J1_5_0 :J1_6_0 :J1_6_1 :J1_6_2 :J1_21_0 :J1_10_0 :J1_11_0 :J1_11_1 :J1_11_2 :J1_22_0 :J1_15_0 :J1_16_0 :J1_16_1 :J1_16_2 :J1_23_0" shape="-109.60,13.60 -90.40,13.60 -89.96,11.38 -89.40,10.60 -88.62,10.04 -87.62,9.71 -86.40,9.60 -86.40,-9.60 -88.62,-10.04 -89.40,-10.60 -89.96,-11.38 -90.29,-12.38 -90.40,-13.60 -109.60,-13.60 -110.04,-11.38 -110.60,-10.60 -111.38,-10.04 -112.38,-9.71 -113.60,-9.60 -113.60,9.60 -111.38,10.04 -110.60,10.60 -110.04,11.38 -109.71,12.38">
        <request index="0"  response="00000000000000000000" foes="00000000000111000000" cont="0"/>
        <request index="1"  response="00000000000000000000" foes="11111100001111000000" cont="0"/>
        <request index="2"  response="00000000000000000000" foes="11111100001111000000" cont="0"/>
        <request index="3"  response="00000000000000000000" foes="11111100001111000000" cont="0"/>
        <request index="4"  response="00000011100000000000" foes="11110011101111000000" cont="1"/>
        <request index="5"  response="00000011100000000000" foes="00000011100000000000" cont="0"/>
        <request index="6"  response="00000111100000011111" foes="10000111100000011111" cont="0"/>
        <request index="7"  response="00000111100000011111" foes="10000111100000011111" cont="0"/>
        <request index="8"  response="00000111100000011111" foes="10000111100000011111" cont="0"/>
        <request index="9"  response="01110111100000011110" foes="01110111100000011110" cont="1"/>
        <request index="10" response="00000000000000000000" foes="01110000000000000000" cont="0"/>
        <request index="11" response="00000000000000000000" foes="11110000001111110000" cont="0"/>
        <request index="12" response="00000000000000000000" foes="11110000001111110000" cont="0"/>
        <request index="13" response="00000000000000000000" foes="11110000001111110000" cont="0"/>
        <request index="14" response="00000000000000001110" foes="11110000001111001110" cont="1"/>
        <request index="15" response="00000000000000001110" foes="00000000000000001110" cont="0"/>
        <request index="16" response="00000111110000011110" foes="00000111111000011110" cont="0"/>
        <request index="17" response="00000111110000011110" foes="00000111111000011110" cont="0"/>
        <request index="18" response="00000111110000011110" foes="00000111111000011110" cont="0"/>
        <request index="19" response="00000111100111011110" foes="00000111100111011110" cont="1"/>
    </junction>
    <junction id="J2" type="dead_end" x="0.00" y="0.00" incLanes="RD1_0 RD1_1 RD1_2" intLanes="" shape="0.00,0.00 0.00,-9.60 0.00,0.00"/>
    <junction id="J3" type="dead_end" x="-100.00" y="100.00" incLanes="UR2_0 UR2_1 UR2_2" intLanes="" shape="-100.00,100.00 -90.40,100.00 -100.00,100.00"/>
    <junction id="J4" type="dead_end" x="-100.00" y="-100.00" incLanes="DL2_0 DL2_1 DL2_2" intLanes="" shape="-100.00,-100.00 -109.60,-100.00 -100.00,-100.00"/>

    <junction id=":J1_20_0" type="internal" x="-100.89" y="8.64" incLanes=":J1_4_0 DR2_0 DR2_1 DR2_2" intLanes=":J1_6_0 :J1_6_1 :J1_6_2 :J1_9_0 :J1_10_0 :J1_11_0 :J1_11_1 :J1_11_2 :J1_16_0 :J1_16_1 :J1_16_2 :J1_19_0"/>
    <junction id=":J1_21_0" type="internal" x="-88.89" y="1.24" incLanes=":J1_9_0 DR2_0 DR2_1 DR2_2 LD1_0 LD1_1 LD1_2 UL2_0 UL2_1 UL2_2" intLanes=":J1_1_0 :J1_1_1 :J1_1_2 :J1_4_0 :J1_11_0 :J1_11_1 :J1_11_2 :J1_14_0 :J1_15_0 :J1_16_0 :J1_16_1 :J1_16_2"/>
    <junction id=":J1_22_0" type="internal" x="-99.11" y="-8.64" incLanes=":J1_14_0 UL2_0 UL2_1 UL2_2" intLanes=":J1_0_0 :J1_1_0 :J1_1_1 :J1_1_2 :J1_6_0 :J1_6_1 :J1_6_2 :J1_9_0 :J1_16_0 :J1_16_1 :J1_16_2 :J1_19_0"/>
    <junction id=":J1_23_0" type="internal" x="-111.11" y="-1.24" incLanes=":J1_19_0 DR2_0 DR2_1 DR2_2 RU1_0 RU1_1 RU1_2 UL2_0 UL2_1 UL2_2" intLanes=":J1_1_0 :J1_1_1 :J1_1_2 :J1_4_0 :J1_5_0 :J1_6_0 :J1_6_1 :J1_6_2 :J1_11_0 :J1_11_1 :J1_11_2 :J1_14_0"/>

    <connection from="DR2" to="RD1" fromLane="0" toLane="0" via=":J1_10_0" tl="J1" linkIndex="10" dir="r" state="O"/>
    <connection from="DR2" to="UR2" fromLane="0" toLane="0" via=":J1_11_0" tl="J1" linkIndex="11" dir="s" state="O"/>
    <connection from="DR2" to="UR2" fromLane="1" toLane="1" via=":J1_11_1" tl="J1" linkIndex="12" dir="s" state="O"/>
    <connection from="DR2" to="UR2" fromLane="2" toLane="2" via=":J1_11_2" tl="J1" linkIndex="13" dir="s" state="O"/>
    <connection from="DR2" to="LU1" fromLane="2" toLane="2" via=":J1_14_0" tl="J1" linkIndex="14" dir="l" state="o"/>
    <connection from="LD1" to="DL2" fromLane="0" toLane="0" via=":J1_15_0" tl="J1" linkIndex="15" dir="r" state="o"/>
    <connection from="LD1" to="RD1" fromLane="0" toLane="0" via=":J1_16_0" tl="J1" linkIndex="16" dir="s" state="o"/>
    <connection from="LD1" to="RD1" fromLane="1" toLane="1" via=":J1_16_1" tl="J1" linkIndex="17" dir="s" state="o"/>
    <connection from="LD1" to="RD1" fromLane="2" toLane="2" via=":J1_16_2" tl="J1" linkIndex="18" dir="s" state="o"/>
    <connection from="LD1" to="UR2" fromLane="2" toLane="2" via=":J1_19_0" tl="J1" linkIndex="19" dir="l" state="o"/>
    <connection from="RU1" to="UR2" fromLane="0" toLane="0" via=":J1_5_0" tl="J1" linkIndex="5" dir="r" state="o"/>
    <connection from="RU1" to="LU1" fromLane="0" toLane="0" via=":J1_6_0" tl="J1" linkIndex="6" dir="s" state="o"/>
    <connection from="RU1" to="LU1" fromLane="1" toLane="1" via=":J1_6_1" tl="J1" linkIndex="7" dir="s" state="o"/>
    <connection from="RU1" to="LU1" fromLane="2" toLane="2" via=":J1_6_2" tl="J1" linkIndex="8" dir="s" state="o"/>
    <connection from="RU1" to="DL2" fromLane="2" toLane="2" via=":J1_9_0" tl="J1" linkIndex="9" dir="l" state="o"/>
    <connection from="UL2" to="LU1" fromLane="0" toLane="0" via=":J1_0_0" tl="J1" linkIndex="0" dir="r" state="O"/>
    <connection from="UL2" to="DL2" fromLane="0" toLane="0" via=":J1_1_0" tl="J1" linkIndex="1" dir="s" state="O"/>
    <connection from="UL2" to="DL2" fromLane="1" toLane="1" via=":J1_1_1" tl="J1" linkIndex="2" dir="s" state="O"/>
    <connection from="UL2" to="DL2" fromLane="2" toLane="2" via=":J1_1_2" tl="J1" linkIndex="3" dir="s" state="O"/>
    <connection from="UL2" to="RD1" fromLane="2" toLane="2" via=":J1_4_0" tl="J1" linkIndex="4" dir="l" state="o"/>

    <connection from=":J1_0" to="LU1" fromLane="0" toLane="0" dir="r" state="M"/>
    <connection from=":J1_1" to="DL2" fromLane="0" toLane="0" dir="s" state="M"/>
    <connection from=":J1_1" to="DL2" fromLane="1" toLane="1" dir="s" state="M"/>
    <connection from=":J1_1" to="DL2" fromLane="2" toLane="2" dir="s" state="M"/>
    <connection from=":J1_4" to="RD1" fromLane="0" toLane="2" via=":J1_20_0" dir="l" state="m"/>
    <connection from=":J1_20" to="RD1" fromLane="0" toLane="2" dir="l" state="M"/>
    <connection from=":J1_5" to="UR2" fromLane="0" toLane="0" dir="r" state="M"/>
    <connection from=":J1_6" to="LU1" fromLane="0" toLane="0" dir="s" state="M"/>
    <connection from=":J1_6" to="LU1" fromLane="1" toLane="1" dir="s" state="M"/>
    <connection from=":J1_6" to="LU1" fromLane="2" toLane="2" dir="s" state="M"/>
    <connection from=":J1_9" to="DL2" fromLane="0" toLane="2" via=":J1_21_0" dir="l" state="m"/>
    <connection from=":J1_21" to="DL2" fromLane="0" toLane="2" dir="l" state="M"/>
    <connection from=":J1_10" to="RD1" fromLane="0" toLane="0" dir="r" state="M"/>
    <connection from=":J1_11" to="UR2" fromLane="0" toLane="0" dir="s" state="M"/>
    <connection from=":J1_11" to="UR2" fromLane="1" toLane="1" dir="s" state="M"/>
    <connection from=":J1_11" to="UR2" fromLane="2" toLane="2" dir="s" state="M"/>
    <connection from=":J1_14" to="LU1" fromLane="0" toLane="2" via=":J1_22_0" dir="l" state="m"/>
    <connection from=":J1_22" to="LU1" fromLane="0" toLane="2" dir="l" state="M"/>
    <connection from=":J1_15" to="DL2" fromLane="0" toLane="0" dir="r" state="M"/>
    <connection from=":J1_16" to="RD1" fromLane="0" toLane="0" dir="s" state="M"/>
    <connection from=":J1_16" to="RD1" fromLane="1" toLane="1" dir="s" state="M"/>
    <connection from=":J1_16" to="RD1" fromLane="2" toLane="2" dir="s" state="M"/>
    <connection from=":J1_19" to="UR2" fromLane="0" toLane="2" via=":J1_23_0" dir="l" state="m"/>
    <connection from=":J1_23" to="UR2" fromLane="0" toLane="2" dir="l" state="M"/>

</net>
