<?xml version="1.0" encoding="UTF-8"?>

<!-- generated on 2026-01-28 23:51:26 by Eclipse SUMO netedit Version 1.21.0
-->

<routes xmlns:xsi="http://www.w3.org/2001/XMLSchema-instance" xsi:noNamespaceSchemaLocation="http://sumo.dlr.de/xsd/routes_file.xsd">
    <!-- Vehicles, persons and containers (sorted by depart) -->
    <flow id="f_0" begin="0.00" from="LD1" to="DL2" end="1200.00" vehsPerHour="1000"/>
    <flow id="f_1" begin="0.00" from="LD1" to="RD1" end="1200.00" period="3.60"/>
</routes>
