<?xml version="1.0" encoding="UTF-8"?>

<!-- generated on 2026-01-28 23:51:26 by Eclipse SUMO sumo Version 1.21.0
-->

<sumoConfiguration xmlns:xsi="http://www.w3.org/2001/XMLSchema-instance" xsi:noNamespaceSchemaLocation="http://sumo.dlr.de/xsd/sumoConfiguration.xsd">

    <input>
        <net-file value="YYY.net.xml"/>
        <route-files value="YYY.rou.xml"/>
        <additional-files value="YYY.add.xml"/>
    </input>

</sumoConfiguration>
